*SPEF "IEEE 1481.1999"
*DESIGN "Watchdog"
*DATE "18:31:57 Monday June 27, 2022"
*VENDOR "unknown"
*PROGRAM "qrouter"
*VERSION "unknown"
*DESIGN_FLOW "qflow"
*DIVIDER /
*DELIMITER :
*BUS_DELIMITER <>
*T_UNIT 1 PS
*C_UNIT 1 FF
*R_UNIT 1 OHM
*L_UNIT 1 HENRY

*NAME_MAP
*1 counter_tff0_out
*2 DFFPOSX1_1
*3 NAND2X1_2
*4 AND2X2_3
*5 OR2X2_2
*6 AOI21X1_2
*7 NAND3X1_1
*8 AND2X2_2
*9 counter_tff2_out
*10 DFFPOSX1_3
*11 INVX1_3
*12 AND2X2_1
*13 AOI21X1_4
*14 OR2X2_4
*15 NAND2X1_1
*16 counter_tff1_out
*17 DFFPOSX1_2
*18 NAND2X1_2
*19 NAND3X1_1
*20 AOI21X1_3
*21 OR2X2_3
*22 AND2X2_1
*23 counter_tff3_out
*24 DFFPOSX1_4
*25 OR2X2_5
*26 AOI21X1_5
*27 AND2X2_2
*28 NAND2X1_1
*29 counter_clear
*30 OR2X2_1
*31 AOI21X1_5
*32 AOI21X1_2
*33 AOI21X1_4
*34 AOI21X1_3
*35 counter_enable
*36 AOI21X1_1
*37 NAND3X1_1
*38 OR2X2_2
*39 AND2X2_3
*40 AOI21X1_2
*41 clk
*42 DFFPOSX1_4
*43 DFFPOSX1_3
*44 DFFPOSX1_2
*45 DFFPOSX1_1
*46 _2_
*47 INVX1_1
*48 AOI21X1_1
*49 OR2X2_1
*50 counter_tff1_t
*51 AND2X2_3
*52 AOI21X1_3
*53 OR2X2_3
*54 _7_
*55 NAND3X1_1
*56 INVX1_2
*57 NOR2X1_2
*58 counter_tff2_t
*59 INVX1_2
*60 OR2X2_4
*61 AOI21X1_4
*62 counter_tff3_t
*63 NOR2X1_2
*64 AOI21X1_5
*65 OR2X2_5
*66 _0_
*67 NAND2X1_1
*68 NOR2X1_1
*69 _1_
*70 NAND2X1_2
*71 NOR2X1_1
*72 _5_
*73 NOR2X1_1
*74 BUFX2_1
*75 enable
*76 INVX1_1
*77 restart
*78 OR2X2_1
*79 _3_
*80 AND2X2_1
*81 AOI21X1_1
*82 _4_
*83 AND2X2_2
*84 AOI21X1_1
*85 timeout
*86 BUFX2_1
*87 _6_
*88 INVX1_3
*89 NOR2X1_2
*90 _9_
*91 OR2X2_2
*92 AND2X2_4
*93 _10_
*94 AOI21X1_2
*95 AND2X2_4
*96 _8_
*97 AND2X2_4
*98 DFFPOSX1_1
*99 _12_
*100 OR2X2_3
*101 AND2X2_5
*102 _13_
*103 AOI21X1_3
*104 AND2X2_5
*105 _11_
*106 AND2X2_5
*107 DFFPOSX1_2
*108 _15_
*109 OR2X2_4
*110 AND2X2_6
*111 _16_
*112 AOI21X1_4
*113 AND2X2_6
*114 _14_
*115 AND2X2_6
*116 DFFPOSX1_3
*117 _18_
*118 OR2X2_5
*119 AND2X2_7
*120 _19_
*121 AOI21X1_5
*122 AND2X2_7
*123 _17_
*124 AND2X2_7
*125 DFFPOSX1_4

*PORTS
*41 I
*75 I
*77 I
*85 O

*D_NET *1 0.0035845
*CONN
*I *2:Q O *D DFFPOSX1
*I *3:B I *L 0.0129035
*I *4:B I *L 0.0125119
*I *5:B I *L 0.0143643
*I *6:B I *L 0.0179733
*I *7:B I *L 0.0159247
*I *8:B I *L 0.0125119
*CAP
1 1_1 0.0002904
2 1_2 0.0005835
3 1_3 0.00060216
4 1_4 6.57e-05
5 1_5 0.0002628
6 1_6 0.0003942
7 1_7 0.00029248
8 1_8 0.00043626
9 1_9 0.0002628
10 1_10 0.0003942
*RES
1 *2:Q 1_1 1.28
2 1_1 1_2 2.4
3 1_2 *3:B 0
4 1_1 1_3 2.77333
5 1_3 1_4 0.266667
6 1_4 1_5 1.06667
7 1_5 *4:B 0
8 1_4 1_6 1.6
9 1_6 *5:B 0
10 1_6 1_7 0.853333
11 1_7 *6:B 0
12 1_3 1_8 1.97333
13 1_8 1_9 1.06667
14 1_9 *7:B 0
15 1_8 1_10 1.6
16 1_10 *8:B 0
*END
*D_NET *9 0.00347338
*CONN
*I *10:Q O *D DFFPOSX1
*I *11:A I *L 0.00932456
*I *12:A I *L 0.0129068
*I *13:B I *L 0.0179733
*I *14:B I *L 0.0143643
*I *15:B I *L 0.0129035
*CAP
1 9_1 0.00077658
2 9_2 0.0001314
3 9_3 0.0004632
4 9_4 0.00010512
5 9_5 6.57e-05
6 9_6 0.00102492
7 9_7 0.00029248
8 9_8 0.00061398
*RES
1 *10:Q 9_1 3.25333
2 9_1 9_2 0.533333
3 9_2 *11:A 0
4 9_1 9_3 2.13333
5 9_3 9_4 0.426667
6 9_4 9_5 0.266667
7 9_5 *12:A 0
8 9_5 9_6 4.16
9 9_6 *13:B 0
10 9_6 9_7 0.853333
11 9_7 *14:B 0
12 9_3 9_8 2.72
13 9_8 *15:B 0
*END
*D_NET *16 0.00413302
*CONN
*I *17:Q O *D DFFPOSX1
*I *18:A I *L 0.0125
*I *19:C I *L 0.0164926
*I *20:B I *L 0.0179733
*I *21:B I *L 0.0143643
*I *22:B I *L 0.0125119
*CAP
1 16_1 0.0007572
2 16_2 0.0005913
3 16_3 0.0011235
4 16_4 6.57e-05
5 16_5 0.00010512
6 16_6 0.0007227
7 16_7 0.00029248
8 16_8 0.00047502
*RES
1 *17:Q 16_1 3.2
2 16_1 16_2 2.4
3 16_2 *18:A 0
4 16_1 16_3 5.06667
5 16_3 16_4 0.266667
6 16_4 16_5 0.426667
7 16_5 *19:C 0
8 16_4 16_6 2.93333
9 16_6 *20:B 0
10 16_6 16_7 0.853333
11 16_7 *21:B 0
12 16_3 16_8 2.08
13 16_8 *22:B 0
*END
*D_NET *23 0.00268678
*CONN
*I *24:Q O *D DFFPOSX1
*I *25:B I *L 0.0143643
*I *26:B I *L 0.0179733
*I *27:A I *L 0.0129068
*I *28:A I *L 0.0125
*CAP
1 23_1 0.00054044
2 23_2 0.00043872
3 23_3 0.00086496
4 23_4 0.00051416
5 23_5 0.0003285
*RES
1 *24:Q 23_1 2.02667
2 23_1 *25:B 0
3 23_1 23_2 1.28
4 23_2 *26:B 0
5 23_2 23_3 3.84
6 23_3 23_4 1.92
7 23_4 *27:A 0
8 23_3 23_5 1.33333
9 23_5 *28:A 0
*END
*D_NET *29 0.00305322
*CONN
*I *30:Y O *D OR2X2
*I *31:C I *L 0.0150799
*I *32:C I *L 0.0150799
*I *33:C I *L 0.0150799
*I *34:C I *L 0.0150799
*CAP
1 29_1 0.00108966
2 29_2 6.57e-05
3 29_3 0.00032424
4 29_4 0.00024408
5 29_5 0.0011833
6 29_6 0.00014624
*RES
1 *30:Y 29_1 4.85333
2 29_1 29_2 0.266667
3 29_2 *31:C 0
4 29_2 29_3 1.49333
5 29_3 29_4 1.06667
6 29_4 *32:C 0
7 29_3 29_5 5.66667
8 29_5 *33:C 0
9 29_5 29_6 0.426667
10 29_6 *34:C 0
*END
*D_NET *35 0.00222594
*CONN
*I *36:Y O *D AOI21X1
*I *37:A I *L 0.0158812
*I *38:A I *L 0.015065
*I *39:A I *L 0.0129068
*I *40:A I *L 0.0173593
*CAP
1 35_1 0.00042936
2 35_2 0.0005256
3 35_3 0.00032424
4 35_4 0.00015834
5 35_5 0.0001314
6 35_6 0.0003942
7 35_7 0.0002628
*RES
1 *36:Y 35_1 1.92
2 35_1 35_2 2.13333
3 35_2 *37:A 0
4 35_1 35_3 1.49333
5 35_3 35_4 0.693333
6 35_4 35_5 0.533333
7 35_5 *38:A 0
8 35_4 35_6 1.6
9 35_6 *39:A 0
10 35_3 35_7 1.06667
11 35_7 *40:A 0
*END
*D_NET *41 0.00434868
*CONN
*P *41 O
*I *42:CLK I *L 0.0279235
*I *43:CLK I *L 0.0279235
*I *44:CLK I *L 0.0279235
*I *45:CLK I *L 0.0279235
*CAP
1 41_1 0.00055584
2 41_2 0.0001815
3 41_3 0.0001314
4 41_4 0.0007227
5 41_5 0.00177174
6 41_6 0.0008541
7 41_7 0.0001314
*RES
1 *41 41_1 2.56
2 41_1 41_2 0.8
3 41_2 41_3 0.533333
4 41_3 *42:CLK 0
5 41_2 41_4 2.93333
6 41_4 *43:CLK 0
7 41_1 41_5 8.16
8 41_5 41_6 3.46667
9 41_6 *44:CLK 0
10 41_5 41_7 0.533333
11 41_7 *45:CLK 0
*END
*D_NET *46 0.0014554
*CONN
*I *47:Y O *D INVX1
*I *48:C I *L 0.0150799
*I *49:A I *L 0.015065
*CAP
1 46_1 0.00130916
2 46_2 0.00014624
*RES
1 *47:Y 46_1 5.65333
2 46_1 *48:C 0
3 46_1 46_2 0.426667
4 46_2 *49:A 0
*END
*D_NET *50 0.00146912
*CONN
*I *51:Y O *D AND2X2
*I *52:A I *L 0.0173593
*I *53:A I *L 0.015065
*CAP
1 50_1 0.0011012
2 50_2 6.57e-05
3 50_3 0.00030222
*RES
1 *51:Y 50_1 4.48
2 50_1 50_2 0.266667
3 50_2 *52:A 0
4 50_2 50_3 1.22667
5 50_3 *53:A 0
*END
*D_NET *54 0.00103616
*CONN
*I *55:Y O *D NAND3X1
*I *56:A I *L 0.00932456
*I *57:B I *L 0.0150643
*CAP
1 54_1 0.00062712
2 54_2 6.57e-05
3 54_3 0.00034334
*RES
1 *55:Y 54_1 2.77333
2 54_1 54_2 0.266667
3 54_2 *56:A 0
4 54_2 54_3 1.22667
5 54_3 *57:B 0
*END
*D_NET *58 0.00113004
*CONN
*I *59:Y O *D INVX1
*I *60:A I *L 0.015065
*I *61:A I *L 0.0173593
*CAP
1 58_1 0.00076212
2 58_2 6.57e-05
3 58_3 0.00030222
*RES
1 *59:Y 58_1 3.09333
2 58_1 58_2 0.266667
3 58_2 *60:A 0
4 58_2 58_3 1.22667
5 58_3 *61:A 0
*END
*D_NET *62 0.00130024
*CONN
*I *63:Y O *D NOR2X1
*I *64:A I *L 0.0173593
*I *65:A I *L 0.015065
*CAP
1 62_1 0.00073754
2 62_2 0.0005627
*RES
1 *63:Y 62_1 2.82667
2 62_1 *64:A 0
3 62_1 62_2 1.86667
4 62_2 *65:A 0
*END
*D_NET *66 0.00098946
*CONN
*I *67:Y O *D NAND2X1
*I *68:A I *L 0.0144193
*CAP
1 66_1 0.00098946
*RES
1 *67:Y 66_1 4.32
2 66_1 *68:A 0
*END
*D_NET *69 0.00021936
*CONN
*I *70:Y O *D NAND2X1
*I *71:B I *L 0.0150643
*CAP
1 69_1 0.00021936
*RES
1 *70:Y 69_1 0.64
2 69_1 *71:B 0
*END
*D_NET *72 0.00058808
*CONN
*I *73:Y O *D NOR2X1
*I *74:A I *L 0.00933171
*CAP
1 72_1 0.00058808
*RES
1 *73:Y 72_1 2.34667
2 72_1 *74:A 0
*END
*D_NET *75 0.000363
*CONN
*P *75 O
*I *76:A I *L 0.00932456
*CAP
1 75_1 0.000363
*RES
1 *75 75_1 1.6
2 75_1 *76:A 0
*END
*D_NET *77 0.00056766
*CONN
*P *77 O
*I *78:B I *L 0.0143643
*CAP
1 77_1 0.00056766
*RES
1 *77 77_1 2.50667
2 77_1 *78:B 0
*END
*D_NET *79 0.00072852
*CONN
*I *80:Y O *D AND2X2
*I *81:A I *L 0.0173593
*CAP
1 79_1 0.00072852
*RES
1 *80:Y 79_1 3.42667
2 79_1 *81:A 0
*END
*D_NET *82 0.00038276
*CONN
*I *83:Y O *D AND2X2
*I *84:B I *L 0.0179733
*CAP
1 82_1 0.00038276
*RES
1 *83:Y 82_1 1.38667
2 82_1 *84:B 0
*END
*D_NET *85 0.00050924
*CONN
*I *86:Y O *D BUFX2
*P *85 I
*CAP
1 85_1 0.00050924
*RES
1 *86:Y 85_1 2.02667
2 85_1 *85 0
*END
*D_NET *87 0.00014624
*CONN
*I *88:Y O *D INVX1
*I *89:A I *L 0.0144193
*CAP
1 87_1 0.00014624
*RES
1 *88:Y 87_1 0.426667
2 87_1 *89:A 0
*END
*D_NET *90 0.00029248
*CONN
*I *91:Y O *D OR2X2
*I *92:A I *L 0.0129068
*CAP
1 90_1 0.00029248
*RES
1 *91:Y 90_1 0.853333
2 90_1 *92:A 0
*END
*D_NET *93 0.00071976
*CONN
*I *94:Y O *D AOI21X1
*I *95:B I *L 0.0125119
*CAP
1 93_1 0.00071976
*RES
1 *94:Y 93_1 3.2
2 93_1 *95:B 0
*END
*D_NET *96 0.0004599
*CONN
*I *97:Y O *D AND2X2
*I *98:D I *L 0.00882947
*CAP
1 96_1 0.0004599
*RES
1 *97:Y 96_1 1.86667
2 96_1 *98:D 0
*END
*D_NET *99 0.00029248
*CONN
*I *100:Y O *D OR2X2
*I *101:A I *L 0.0129068
*CAP
1 99_1 0.00029248
*RES
1 *100:Y 99_1 0.853333
2 99_1 *101:A 0
*END
*D_NET *102 0.00071976
*CONN
*I *103:Y O *D AOI21X1
*I *104:B I *L 0.0125119
*CAP
1 102_1 0.00071976
*RES
1 *103:Y 102_1 3.2
2 102_1 *104:B 0
*END
*D_NET *105 0.00077232
*CONN
*I *106:Y O *D AND2X2
*I *107:D I *L 0.00882947
*CAP
1 105_1 0.00077232
*RES
1 *106:Y 105_1 3.41333
2 105_1 *107:D 0
*END
*D_NET *108 0.00014624
*CONN
*I *109:Y O *D OR2X2
*I *110:A I *L 0.0129068
*CAP
1 108_1 0.00014624
*RES
1 *109:Y 108_1 0.426667
2 108_1 *110:A 0
*END
*D_NET *111 0.00079548
*CONN
*I *112:Y O *D AOI21X1
*I *113:B I *L 0.0125119
*CAP
1 111_1 0.00079548
*RES
1 *112:Y 111_1 3.52
2 111_1 *113:B 0
*END
*D_NET *114 0.00072704
*CONN
*I *115:Y O *D AND2X2
*I *116:D I *L 0.00882947
*CAP
1 114_1 0.00072704
*RES
1 *115:Y 114_1 2.98667
2 114_1 *116:D 0
*END
*D_NET *117 0.00014624
*CONN
*I *118:Y O *D OR2X2
*I *119:A I *L 0.0129068
*CAP
1 117_1 0.00014624
*RES
1 *118:Y 117_1 0.426667
2 117_1 *119:A 0
*END
*D_NET *120 0.00095382
*CONN
*I *121:Y O *D AOI21X1
*I *122:B I *L 0.0125119
*CAP
1 120_1 0.00095382
*RES
1 *121:Y 120_1 4.21333
2 120_1 *122:B 0
*END
*D_NET *123 0.00067926
*CONN
*I *124:Y O *D AND2X2
*I *125:D I *L 0.00882947
*CAP
1 123_1 0.00067926
*RES
1 *124:Y 123_1 2.50667
2 123_1 *125:D 0
*END
